examples/test_perturbation_outputs/pert_min_cost/pglib_opf_case6470_rte.m
%% MATPOWER Case Format : Version 2
function mpc = pglib_opf_case6470_rte
mpc.version = '2';

%%-----  Power Flow Data  -----%%
%% system MVA base
mpc.baseMVA = 100.0;
%% bus data
%    bus_i    type    Pd    Qd    Gs    Bs    area    Vm    Va    baseKV    zone    Vmax    Vmin
mpc.bus = [
	1	1	0.0	0.0	0.0	0.0	1	0.94444	0.0	45.0	1	1.0	0.88889				
	2	1	0.0	0.0	0.0	0.0	1	1.0	0.0	63.0	1	1.06349	0.93651				
	3	1	12.5	-0.7	0.0	0.0	1	1.01588	0.0	63.0	1	1.07937	0.95238				
	4	1	44.7	-0.9000000000000001	0.0	0.0	1	1.01111	0.0	90.0	1	1.08889	0.93333				
	5	2	12.0	0.1	0.0	0.0	1	1.00794	0.0	63.0	1	1.06349	0.95238				
	6	1	13.0	4.3	0.0	0.0	1	1.0	0.0	63.0	1	1.07937	0.92063				
	7	1	1.2	0.8	0.0	0.0	1	1.0	0.0	63.0	1	1.07937	0.92063				
	8	1	25.8	4.9	0.0	0.0	1	0.98889	0.0	225.0	1	1.08889	0.88889				
	9	1	12.9	0.0	0.0	0.0	1	1.0	0.0	63.0	1	1.06349	0.93651				
	10	1	0.0	0.0	0.0	0.0	1	1.0	0.0	90.0	1	1.07778	0.92222				
	11	1	28.800000000000004	1.1	0.0	0.0	1	1.0	0.0	90.0	1	1.07778	0.92222				
	12	1	0.0	0.0	0.0	0.0	1	1.01588	0.0	63.0	1	1.07937	0.95238				
	13	1	0.0	0.0	0.0	0.0	1	1.07895	0.0	380.0	1	1.10263	1.05526				
	14	1	51.5	1.9	0.0	0.0	1	1.02778	0.0	90.0	1	1.07778	0.97778				
	15	1	0.0	0.0	0.0	0.0	1	1.0	0.0	63.0	1	1.07937	0.92063				
	16	1	13.8	4.1	0.0	0.0	1	1.0	0.0	63.0	1	1.07937	0.92063				
	17	2	13.100000000000001	0.2	0.0	0.0	1	1.02222	0.0	90.0	1	1.06667	0.97778				
	18	1	0.0	0.0	0.0	0.0	1	0.94444	0.0	45.0	1	1.0	0.88889				
	19	1	1.0	0.0	0.0	0.0	1	1.0	0.0	63.0	1	1.06349	0.93651				
	20	1	0.9000000000000001	-21.5	0.0	0.0	1	0.94444	0.0	45.0	1	1.0	0.88889				
	21	1	8.3	-3.3000000000000003	0.0	0.0	1	1.02222	0.0	90.0	1	1.06667	0.97778				
	22	1	18.0	1.1	0.0	0.0	1	1.01588	0.0	63.0	1	1.07937	0.95238				
	23	1	19.2	3.4000000000000004	0.0	0.0	1	1.0	0.0	63.0	1	1.06349	0.93651				
	24	2	16.1	-1.6	0.0	0.0	1	1.03333	0.0	90.0	1	1.11111	0.95556				
	25	2	59.9	-3.2	0.0	0.0	1	1.02222	0.0	90.0	1	1.1	0.94444				
	26	1	35.1	8.1	0.0	0.0	1	1.02222	0.0	90.0	1	1.06667	0.97778				
	27	1	0.0	0.0	0.0	0.0	1	1.04444	0.0	225.0	1	1.08444	1.00444				
	28	1	0.7	0.2	0.0	0.0	1	1.01588	0.0	63.0	1	1.07937	0.95238				
	29	1	60.099999999999994	2.7	0.0	0.0	1	1.01587	0.0	63.0	1	1.06349	0.96825				
	30	1	33.5	-0.9000000000000001	0.0	0.0	1	1.01111	0.0	90.0	1	1.08889	0.93333				
	31	1	0.0	0.0	0.0	0.0	1	1.0	0.0	63.0	1	1.06349	0.93651				
	32	1	0.0	0.0	0.0	0.0	1	1.00334	0.0	150.0	1	1.10667	0.9				
	33	1	0.0	0.0	0.0	0.0	1	1.01111	0.0	225.0	1	1.08889	0.93333				
	34	1	0.0	0.0	0.0	0.0	1	1.01111	0.0	225.0	1	1.08889	0.93333				
	35	1	0.0	0.0	0.0	0.0	1	1.07237	0.0	380.0	1	1.10526	1.03947				
	36	1	0.0	0.0	0.0	0.0	1	1.07237	0.0	380.0	1	1.10526	1.03947				
	37	1	3.2	4.3	0.0	0.0	1	1.0	0.0	63.0	1	1.07937	0.92063				
	38	1	6.0	-2.0	0.0	0.0	1	1.01587	0.0	63.0	1	1.09524	0.93651				
	39	1	41.0	-3.3000000000000003	0.0	0.0	1	1.02778	0.0	90.0	1	1.07778	0.97778				
	40	1	32.6	0.5	0.0	0.0	1	1.02778	0.0	90.0	1	1.07778	0.97778				
	41	1	0.0	0.0	0.0	0.0	1	1.04666	0.0	225.0	1	1.08889	1.00444				
	42	1	0.0	0.0	0.0	0.0	1	1.04249	0.0	63.0	1	1.13259	0.95238				
	43	1	3.6000000000000005	2.0	0.0	0.0	1	1.02778	0.0	90.0	1	1.07778	0.97778				
	44	1	13.0	-0.7	0.0	0.0	1	1.00794	0.0	63.0	1	1.06349	0.95238				
	45	1	3.9	1.7000000000000002	0.0	0.0	1	1.02222	0.0	90.0	1	1.06667	0.97778				
	46	1	0.0	0.0	0.0	0.0	1	1.0	0.0	63.0	1	1.06349	0.93651				
	47	2	0.0	0.0	0.0	0.0	1	1.0	0.0	63.0	1	1.06349	0.93651				
	48	2	36.5	3.4000000000000004	0.0	0.0	1	1.0	0.0	90.0	1	1.07778	0.92222				
	49	1	8.8	-1.7000000000000002	0.0	0.0	1	1.0	0.0	63.0	1	1.06349	0.93651				
	50	1	0.0	0.0	0.0	0.0	1	1.00331	0.0	63.0	1	1.07012	0.93651				
	51	1	0.0	0.0	0.0	0.0	1	1.01111	0.0	225.0	1	1.08889	0.93333				
	52	1	5.0	2.4	0.0	0.0	1	1.02222	0.0	90.0	1	1.06667	0.97778				
	53	1	2.5	-0.5	0.0	0.0	1	1.0	0.0	63.0	1	1.04762	0.95238				
	54	1	-0.4	0.0	0.0	0.0	1	1.02222	0.0	90.0	1	1.06667	0.97778				
	55	1	37.6	6.7	0.0	0.0	1	1.04666	0.0	225.0	1	1.08889	1.00444				
	56	1	52.1	13.5	0.0	0.0	1	1.04666	0.0	225.0	1	1.08889	1.00444				
	57	2	0.0	0.0	0.0	0.0	1	1.0	0.0	63.0	1	1.07937	0.92063				
	58	1	130.6	30.099999999999998	0.0	0.0	1	1.04666	0.0	225.0	1	1.08889	1.00444				
	59	1	5.1	1.3	0.0	0.0	1	1.01588	0.0	63.0	1	1.07937	0.95238				
	60	1	0.0	0.0	0.0	0.0	1	1.01588	0.0	63.0	1	1.07937	0.95238				
	61	1	39.5	9.7	0.0	0.0	1	1.01588	0.0	63.0	1	1.07937	0.95238				
	62	1	0.0	0.0	0.0	0.0	1	1.01588	0.0	63.0	1	1.07937	0.95238				
	63	1	15.8	2.0	0.0	0.0	1	1.01588	0.0	63.0	1	1.07937	0.95238				
	64	2	62.4	1.0	0.0	0.0	1	0.98889	0.0	225.0	1	1.08889	0.88889				
	65	1	11.0	2.8	0.0	0.0	1	1.01588	0.0	63.0	1	1.07937	0.95238				
	66	1	13.200000000000001	-7.9	0.0	0.0	1	1.0	0.0	63.0	1	1.06349	0.93651				
	67	1	0.0	0.0	0.0	0.0	1	1.0	0.0	63.0	1	1.07937	0.92063				
	68	1	48.1	-0.1	0.0	0.0	1	1.0	0.0	63.0	1	1.06349	0.93651				
	69	2	19.3	-2.7	0.0	0.0	1	1.00794	0.0	63.0	1	1.06349	0.95238				
	70	2	10.6	2.7	0.0	0.0	1	1.01588	0.0	63.0	1	1.07937	0.95238				
	71	1	62.4	14.899999999999999	0.0	0.0	1	1.0	0.0	63.0	1	1.04762	0.95238				
	72	1	0.0	0.0	0.0	0.0	1	1.04736	0.0	225.0	1	1.09027	1.00444				
	73	1	0.0	0.0	0.0	0.0	1	1.04734	0.0	225.0	1	1.09025	1.00444				
	74	1	50.4	-9.9	0.0	0.0	1	0.98889	0.0	225.0	1	1.08889	0.88889				
	75	1	22.3	1.8000000000000003	0.0	0.0	1	1.02254	0.0	90.0	1	1.0673	0.97778				
	76	1	2.6	-0.4	0.0	0.0	1	1.03795	0.0	225.0	1	1.08923	0.98667				
	77	1	36.8	-0.4	0.0	0.0	1	1.0	0.0	63.0	1	1.06349	0.93651				
	78	1	0.0	0.0	0.0	0.0	1	1.0	0.0	63.0	1	1.07937	0.92063				
	79	1	0.0	0.0	0.0	0.0	1	1.0	0.0	63.0	1	1.04762	0.95238				
	80	1	32.3	7.3	0.0	0.0	1	1.04666	0.0	225.0	1	1.08889	1.00444				
	81	1	36.3	9.9	0.0	0.0	1	1.04666	0.0	225.0	1	1.08889	1.00444				
	82	1	11.7	1.6	0.0	0.0	1	1.0	0.0	63.0	1	1.06349	0.93651				
	83	1	77.5	26.400000000000002	0.0	0.0	1	1.04666	0.0	225.0	1	1.08889	1.00444				
	84	1	-1.6	-1.2	0.0	0.0	1	1.0	0.0	63.0	1	1.06349	0.93651				
	85	1	2.1	-2.1	0.0	0.0	1	1.0	0.0	63.0	1	1.06349	0.93651				
	86	2	48.9	3.6000000000000005	0.0	0.0	1	1.02222	0.0	90.0	1	1.06667	0.97778				
	87	1	0.0	0.0	0.0	0.0	1	1.01588	0.0	63.0	1	1.07937	0.95238				
	88	1	13.5	-0.1	0.0	0.0	1	1.0	0.0	63.0	1	1.06349	0.93651				
	89	1	25.4	0.8	0.0	0.0	1	1.02778	0.0	90.0	1	1.07778	0.97778				
	90	1	0.4	-1.4	0.0	0.0	1	0.94444	0.0	45.0	1	1.0	0.88889				
	91	1	1.0	0.0	0.0	0.0	1	0.94444	0.0	45.0	1	1.0	0.88889				
	92	1	28.6	3.2	0.0	0.0	1	1.01587	0.0	63.0	1	1.06349	0.96825				
	93	1	2.1	-2.5	0.0	0.0	1	0.94444	0.0	45.0	1	1.0	0.88889				
	94	1	17.5	-4.3	0.0	0.0	1	1.02222	0.0	90.0	1	1.06667	0.97778				
	95	1	46.5	7.6	0.0	0.0	1	1.02222	0.0	90.0	1	1.06667	0.97778				
	96	1	1.5	-0.7	0.0	0.0	1	1.0	0.0	63.0	1	1.06349	0.93651				
	97	1	56.39999999999999	0.9000000000000001	0.0	0.0	1	1.0	0.0	63.0	1	1.07937	0.92063				
	98	1	7.400000000000001	-1.3	0.0	0.0	1	1.01588	0.0	63.0	1	1.07937	0.95238				
	99	1	26.899999999999995	3.1	0.0	0.0	1	1.01588	0.0	63.0	1	1.07937	0.95238				
	100	1	53.29999999999999	8.6	0.0	0.0	1	1.0	0.0	63.0	1	1.06349	0.93651				
	101	1	17.7	0.5	0.0	0.0	1	1.0	0.0	63.0	1	1.06349	0.93651				
	102	2	0.0	0.0	0.0	0.0	1	1.01588	0.0	63.0	1	1.07937	0.95238				
	103	1	18.0	-1.1	0.0	0.0	1	1.01588	0.0	63.0	1	1.07937	0.95238				
	104	1	0.0	0.0	0.0	0.0	1	1.03778	0.0	225.0	1	1.08889	0.98667				
	105	1	35.5	1.0	0.0	0.0	1	0.98889	0.0	225.0	1	1.08889	0.88889				
	106	1	49.8	7.5	0.0	0.0	1	1.02222	0.0	90.0	1	1.1	0.94444				
	107	1	77.6	8.1	0.0	0.0	1	1.04666	0.0	225.0	1	1.08444	1.00889				
	108	1	12.6	-0.4	0.0	0.0	1	1.02778	0.0	90.0	1	1.07778	0.97778				
	109	1	68.7	10.9	0.0	0.0	1	1.0	0.0	63.0	1	1.06349	0.93651				
	110	1	0.0	0.0	0.0	0.0	1	1.01111	0.0	225.0	1	1.08889	0.93333				
	111	1	36.5	-7.9	0.0	0.0	1	1.01587	0.0	63.0	1	1.06349	0.96825				
	112	1	0.0	0.0	0.0	0.0	1	1.0	0.0	63.0	1	1.04762	0.95238				
	113	1	0.0	0.0	0.0	0.0	1	1.04666	0.0	225.0	1	1.08889	1.00444				
	114	1	10.8	0.0	0.0	0.0	1	1.0	0.0	63.0	1	1.06349	0.93651				
	115	1	0.0	0.0	0.0	0.0	1	1.07895	0.0	380.0	1	1.10526	1.05263				
	116	1	0.0	0.0	0.0	0.0	1	1.07895	0.0	380.0	1	1.10526	1.05263				
	117	1	15.4	-1.0	0.0	0.0	1	1.01588	0.0	63.0	1	1.07937	0.95238				
	118	1	2.0	0.8	0.0	0.0	1	1.02368	0.0	90.0	1	1.06958	0.97778				
	119	1	37.2	5.3	0.0	0.0	1	1.0	0.0	63.0	1	1.06349	0.93651				
	120	1	17.0	-3.2	0.0	0.0	1	1.0	0.0	63.0	1	1.06349	0.93651				
	121	1	17.6	3.9	0.0	0.0	1	1.0	0.0	63.0	1	1.07937	0.92063				
	122	2	0.0	0.0	0.0	0.0	1	1.01588	0.0	63.0	1	1.07937	0.95238				
	123	1	9.0	2.6	0.0	0.0	1	1.01588	0.0	63.0	1	1.07937	0.95238				
	124	2	8.0	-0.9000000000000001	0.0	0.0	1	1.02222	0.0	90.0	1	1.06667	0.97778				
	125	2	10.5	-0.5	0.0	0.0	1	1.01588	0.0	63.0	1	1.07937	0.95238				
	126	1	0.3	-0.1	0.0	0.0	1	1.0	0.0	63.0	1	1.06349	0.93651				
	127	1	7.8	1.5	0.0	0.0	1	1.0	0.0	63.0	1	1.04762	0.95238				
	128	1	11.8	7.6	0.0	0.0	1	1.01587	0.0	63.0	1	1.06349	0.96825				
	129	1	16.7	11.8	0.0	0.0	1	1.01587	0.0	63.0	1	1.06349	0.96825				
	130	1	0.0	0.0	0.0	0.0	1	1.04666	0.0	225.0	1	1.08444	1.00889				
	131	1	103.0	13.600000000000001	0.0	0.0	1	1.04666	0.0	225.0	1	1.08444	1.00889				
	132	2	11.5	0.0	0.0	0.0	1	1.0	0.0	90.0	1	1.07778	0.92222				
	133	1	2.1	0.5	0.0	0.0	1	1.0	0.0	63.0	1	1.04762	0.95238				
	134	1	83.5	23.6	0.0	0.0	1	1.04666	0.0	225.0	1	1.08889	1.00444				
	135	1	0.0	0.0	0.0	0.0	1	1.04666	0.0	225.0	1	1.08889	1.00444				
	136	1	21.9	-0.2	0.0	0.0	1	1.02778	0.0	90.0	1	1.07778	0.97778				
	137	2	9.6	-4.4	0.0	0.0	1	1.01587	0.0	63.0	1	1.06349	0.96825				
	138	1	0.0	0.0	0.0	0.0	1	1.02333	0.0	150.0	1	1.08	0.96667				
	139	1	15.7	2.2	0.0	0.0	1	1.0	0.0	63.0	1	1.07937	0.92063				
	140	1	0.0	0.0	0.0	80.0	1	1.04445	0.0	225.0	1	1.08889	1.0				
	141	1	0.0	0.0	0.0	0.0	1	1.07895	0.0	380.0	1	1.10526	1.05263				
	142	1	14.800000000000002	5.8	0.0	0.0	1	1.01588	0.0	63.0	1	1.07937	0.95238				
	143	1	0.0	0.0	0.0	0.0	1	1.03778	0.0	225.0	1	1.08889	0.98667				
	144	1	23.3	-10.3	0.0	0.0	1	1.03333	0.0	90.0	1	1.11111	0.95556				
	145	1	27.6	5.9	0.0	0.0	1	1.02889	0.0	225.0	1	1.08889	0.96889				
	146	1	0.0	0.0	0.0	0.0	1	1.05263	0.0	380.0	1	1.10526	1.0				
	147	1	28.999999999999996	5.5	0.0	0.0	1	1.0	0.0	63.0	1	1.06349	0.93651				
	148	1	6.7	2.4	0.0	0.0	1	1.0	0.0	63.0	1	1.06349	0.93651				
	149	1	17.9	6.1	0.0	0.0	1	1.02222	0.0	90.0	1	1.06667	0.97778				
	150	1	44.5	6.4	0.0	0.0	1	1.0	0.0	63.0	1	1.06349	0.93651				
	151	1	0.0	0.0	0.0	0.0	1	1.01587	0.0	63.0	1	1.06349	0.96825				
	152	1	38.3	8.8	0.0	7.7	1	1.01587	0.0	63.0	1	1.06349	0.96825				
	153	1	23.2	-2.6	0.0	0.0	1	1.0	0.0	63.0	1	1.06349	0.93651				
	154	1	0.0	0.0	0.0	0.0	1	1.01111	0.0	225.0	1	1.08889	0.93333				
	155	1	0.0	0.0	0.0	0.0	1	1.0	0.0	63.0	1	1.07937	0.92063				
	156	1	0.0	0.0	0.0	0.0	1	1.01587	0.0	63.0	1	1.06349	0.96825				
	157	1	0.3	3.1	0.0	0.0	1	0.94444	0.0	45.0	1	1.0	0.88889				
	158	2	0.0	0.0	0.0	0.0	1	0.94444	0.0	45.0	1	1.0	0.88889				
	159	1	0.0	0.0	0.0	0.0	1	1.0	0.0	63.0	1	1.06349	0.93651				
	160	1	35.2	5.6	0.0	0.0	1	0.98889	0.0	225.0	1	1.08889	0.88889				
	161	1	38.2	8.7	0.0	0.0	1	0.98889	0.0	225.0	1	1.08889	0.88889				
	162	1	0.7	-1.4	0.0	0.0	1	1.02222	0.0	90.0	1	1.06667	0.97778				
	163	1	0.0	0.0	0.0	0.0	1	1.01588	0.0	63.0	1	1.07937	0.95238				
	164	1	0.0	0.0	0.0	0.0	1	1.01588	0.0	63.0	1	1.07937	0.95238				
	165	1	16.7	9.2	0.0	0.0	1	0.975	0.0	20.0	1	1.15	0.8				
	166	1	10.1	2.4	0.0	0.0	1	1.02222	0.0	90.0	1	1.06667	0.97778				
	167	1	13.600000000000001	0.6	0.0	0.0	1	1.02222	0.0	90.0	1	1.06667	0.97778				
	168	1	0.0	0.0	0.0	0.0	1	1.04444	0.0	225.0	1	1.08444	1.00444				
	169	1	10.8	-1.0	0.0	0.0	1	1.02222	0.0	90.0	1	1.06667	0.97778				
	170	1	70.4	11.6	0.0	0.0	1	1.02778	0.0	90.0	1	1.07778	0.97778				
	171	1	26.5	-0.4	0.0	0.0	1	1.02778	0.0	90.0	1	1.07778	0.97778				
	172	1	0.0	0.0	0.0	0.0	1	1.04666	0.0	225.0	1	1.08889	1.00444				
	173	1	27.699999999999996	8.5	0.0	0.0	1	1.01111	0.0	90.0	1	1.08889	0.93333				
	174	1	47.4	4.6	0.0	0.0	1	1.03333	0.0	90.0	1	1.11111	0.95556				
	175	1	0.0	0.0	0.0	0.0	1	1.0	0.0	63.0	1	1.07937	0.92063				
	176	1	0.0	0.0	0.0	0.0	1	1.0	0.0	63.0	1	1.07937	0.92063				
	177	1	0.0	0.0	0.0	0.0	1	1.0	0.0	150.0	1	1.1	0.9				
	178	1	0.0	0.0	0.0	0.0	1	1.04666	0.0	225.0	1	1.08889	1.00444				
	179	1	0.0	0.0	0.0	0.0	1	1.04666	0.0	225.0	1	1.08889	1.00444				
	180	1	0.0	0.0	0.0	-32.0	1	0.975	0.0	20.0	1	1.15	0.8				
	181	1	0.0	0.0	0.0	-32.0	1	0.975	0.0	20.0	1	1.15	0.8				
	182	1	0.0	0.0	0.0	0.0	1	1.0	0.0	63.0	1	1.04762	0.95238				
	183	1	0.0	0.0	0.0	0.0	1	1.04666	0.0	225.0	1	1.08889	1.00444				
	184	1	12.9	-4.6	0.0	0.0	1	1.0	0.0	63.0	1	1.07937	0.92063				
	185	1	16.0	3.1	0.0	0.0	1	1.0	0.0	63.0	1	1.06349	0.93651				
	186	1	4.8	-0.4	0.0	0.0	1	1.01588	0.0	63.0	1	1.07937	0.95238				
	187	1	5.0	1.4	0.0	0.0	1	1.02778	0.0	90.0	1	1.07778	0.97778				
	188	1	28.7	4.0	0.0	0.0	1	1.01588	0.0	63.0	1	1.07937	0.95238				
	189	1	1.1	0.3	0.0	0.0	1	1.02222	0.0	90.0	1	1.06667	0.97778				
	190	1	0.0	0.0	0.0	0.0	1	1.0	0.0	63.0	1	1.07937	0.92063				
	191	1	16.2	1.6	0.0	0.0	1	1.0	0.0	63.0	1	1.07937	0.92063				
	192	1	0.0	0.0	0.0	0.0	1	0.94444	0.0	45.0	1	1.0	0.88889				
	193	1	13.8	-0.3	0.0	0.0	1	1.02222	0.0	90.0	1	1.06667	0.97778				
	194	1	7.400000000000001	-1.5	0.0	0.0	1	1.0	0.0	63.0	1	1.07937	0.92063				
	195	1	7.9	4.8	0.0	0.0	1	1.04666	0.0	225.0	1	1.08889	1.00444				
	196	2	1.0	-0.3	0.0	0.0	1	1.0	0.0	63.0	1	1.07937	0.92063				
	197	1	0.0	0.0	0.0	0.0	1	1.02538	0.0	63.0	1	1.09837	0.95238				
	198	1	0.0	0.0	0.0	0.0	1	1.02538	0.0	63.0	1	1.09837	0.95238				
	199	1	24.4	1.2	0.0	0.0	1	1.0	0.0	63.0	1	1.07937	0.92063				
	200	1	9.3	-2.7	0.0	0.0	1	1.0	0.0	63.0	1	1.07937	0.92063				
...
];

%% generator data
%    bus    Pg    Qg    Qmax    Qmin    Vg    mBase    status    Pmax    Pmin    Pc1    Pc2    Qc1min    Qc1max    Qc2min    Qc2max    ramp_agc    ramp_10    ramp_30    ramp_q    apf
mpc.gen = [
	4	0.0	0.0	0.0	0.0	1.0111115	100.0	0	12.0	0.0															
	4	0.0	0.0	0.0	0.0	1.0111115	100.0	0	10.0	0.0															
	5	4.55	0.0	0.0	0.0	1.0079355	100.0	1	9.1	0.0															
	11	0.0	0.0	0.0	0.0	1.000001	100.0	0	28.000000000000004	0.0															
	11	0.0	0.0	0.0	0.0	1.000001	100.0	0	18.0	0.0															
	17	4.1	0.0	0.0	0.0	1.022224	100.0	1	8.2	0.0															
	19	0.0	0.0	0.0	0.0	0.999999	100.0	0	1.2	0.0															
	22	0.0	0.0	0.0	0.0	1.0158755	100.0	0	10.0	0.0															
	24	0.0	0.0	0.0	0.0	1.033333	100.0	0	16.1	0.0															
	24	17.75	0.0	0.0	0.0	1.033333	100.0	1	35.5	0.0															
	25	18.0	0.0	0.0	0.0	1.022222	100.0	1	36.0	0.0															
	25	0.0	0.0	0.0	0.0	1.022222	100.0	0	27.200000000000003	0.0															
	40	0.0	0.0	0.0	0.0	1.027779	100.0	0	8.0	0.0															
	47	8.0	0.0	9.5	-9.5	0.999999	100.0	1	16.0	0.0															
	47	0.0	-1.81	9.5	-9.5	0.999999	100.0	0	16.0	0.0															
	48	11.5	0.0	0.0	0.0	1.000001	100.0	1	23.0	0.0															
	48	12.0	0.0	0.0	0.0	1.000001	100.0	1	24.0	0.0															
	57	6.5	0.95	1.0	0.9000000000000001	1.0000025	100.0	1	13.0	0.0															
	64	0.0	0.0	0.0	0.0	0.9888895	100.0	0	24.0	0.0															
	64	13.8	0.0	0.0	0.0	0.9888895	100.0	1	27.6	0.0															
	69	15.02	0.0	0.0	0.0	1.0079355	100.0	1	30.04	0.0															
	70	11.5	0.0	0.0	0.0	1.0158755	100.0	1	23.0	0.0															
	85	0.0	0.0	0.0	0.0	0.999999	100.0	0	6.68	0.0															
	86	4.6	0.0	0.0	0.0	1.022224	100.0	1	9.2	0.0															
	102	23.0	6.0	21.0	-9.0	1.0158755	100.0	1	46.0	0.0															
	122	6.0	1.5	5.0	-2.0	1.0158755	100.0	1	12.0	0.0															
	124	4.5	0.0	0.0	0.0	1.022224	100.0	1	9.0	0.0															
	125	13.0	0.0	0.0	0.0	1.0158755	100.0	1	26.0	0.0															
	125	6.0	0.0	0.0	0.0	1.0158755	100.0	1	12.0	0.0															
	132	8.5	0.0	3.0	-3.0	1.000001	100.0	1	17.0	0.0															
	132	0.0	1.0	1.0	-1.0	1.000001	100.0	0	4.0	0.0															
	132	0.0	1.9900000000000002	3.0	-3.0	1.000001	100.0	0	14.000000000000002	0.0															
	132	0.0	1.9900000000000002	3.0	-3.0	1.000001	100.0	0	14.000000000000002	0.0															
	137	0.0	-0.57	0.8	-0.8	1.015872	100.0	0	18.0	0.0															
	137	9.0	0.0	0.8	-0.8	1.015872	100.0	1	18.0	0.0															
	155	0.0	-1.7500000000000002	1.76	-1.76	1.0000025	100.0	0	5.3	0.0															
	158	8.95	-1.5	10.0	-13.0	0.9444445	100.0	1	17.9	0.0															
	158	0.0	-2.57	10.0	-13.0	0.9444445	100.0	0	17.9	0.0															
	177	0.0	-1.56	10.0	-4.0	1.0	100.0	0	30.0	0.0															
	190	0.0	-1.41	8.0	-8.0	1.0000025	100.0	0	11.0	0.0															
	190	0.0	-1.41	2.0	-2.0	1.0000025	100.0	0	11.0	0.0															
	192	0.0	-2.63	14.000000000000002	-14.000000000000002	0.9444445	100.0	0	30.0	0.0															
	194	0.0	0.0	0.0	0.0	1.0000025	100.0	0	23.5	0.0															
	196	7.5	0.95	1.0	0.9000000000000001	1.0000025	100.0	1	15.0	0.0															
	196	7.5	0.95	1.0	0.9000000000000001	1.0000025	100.0	1	15.0	0.0															
	219	5.97	0.0	0.0	0.0	1.022224	100.0	1	11.94	0.0															
	226	0.0	0.0	2.0	0.0	1.0	100.0	0	6.0	0.0															
	229	3.75	0.0	0.0	0.0	1.0079355	100.0	1	7.5	0.0															
	238	16.75	0.0	0.0	0.0	1.000001	100.0	1	33.5	0.0															
	238	12.15	0.0	0.0	0.0	1.000001	100.0	1	24.3	0.0															
	240	0.0	0.0	0.0	0.0	1.022224	100.0	0	8.0	0.0															
	240	18.0	0.0	0.0	0.0	1.022224	100.0	1	36.0	0.0															
	248	0.0	0.0	2.0	0.0	0.999999	100.0	0	1.0	0.0															
	248	0.0	-2.77	10.0	-10.0	0.999999	100.0	0	31.0	0.0															
	248	0.0	-2.77	10.0	-10.0	0.999999	100.0	0	31.0	0.0															
	248	0.0	-2.77	10.0	-10.0	0.999999	100.0	0	31.0	0.0															
	258	0.0	-1.94	10.0	-10.0	1.0000025	100.0	0	26.0	0.0															
	258	0.0	0.22999999999999998	10.0	-10.0	1.0000025	100.0	0	26.0	0.0															
	260	15.0	0.95	1.0	0.9000000000000001	1.000001	100.0	1	30.0	0.0															
	263	4.0	0.0	4.0	-4.0	1.0000025	100.0	1	8.0	0.0															
	271	0.0	0.0	0.0	0.0	1.0000025	100.0	0	12.6	0.0															
	284	0.0	-2.78	6.1	-6.2	0.999999	100.0	0	11.6	0.0															
	297	0.0	0.0	0.0	0.0	0.9888895	100.0	0	25.3	0.0															
	298	0.0	0.0	0.0	0.0	1.0158755	100.0	0	12.0	0.0															
	307	7.5	0.0	9.0	-9.0	0.999999	100.0	1	15.0	0.0															
	314	12.9	0.0	0.0	0.0	1.000001	100.0	1	25.8	0.0															
	314	24.8	0.0	0.0	0.0	1.000001	100.0	1	49.6	0.0															
	319	0.0	0.0	0.0	0.0	1.0000025	100.0	0	0.0	-7.000000000000001															
	319	0.0	0.0	0.0	0.0	1.0000025	100.0	0	0.0	-7.000000000000001															
	321	5.4	0.0	0.1	-0.1	1.0000025	100.0	1	10.8	0.0															
	327	0.0	-0.57	4.0	-4.0	0.999999	100.0	0	11.0	0.0															
	334	0.0	0.13	13.0	-9.0	1.015872	100.0	0	25.0	0.0															
	335	12.5	2.0	13.0	-9.0	1.0233335	100.0	1	25.0	0.0															
	338	6.5	-0.5	5.0	-6.0	1.0000025	100.0	1	13.0	0.0															
	340	0.0	-1.82	10.0	-10.0	1.0000025	100.0	0	21.0	0.0															
	340	0.0	-0.1	0.1	-0.1	1.0000025	100.0	0	2.0	0.0															
	347	0.0	0.0	0.0	0.0	1.027779	100.0	0	2.3	0.0															
	347	9.75	0.0	0.0	0.0	1.027779	100.0	1	19.5	0.0															
	350	0.0	0.0	0.0	0.0	1.022222	100.0	0	22.0	0.0															
	358	0.0	1.8399999999999999	30.0	-30.0	1.0000025	100.0	0	30.0	0.0															
	359	6.0	0.0	0.0	0.0	1.0158755	100.0	1	12.0	0.0															
	359	6.0	0.0	0.0	0.0	1.0158755	100.0	1	12.0	0.0															
	366	65.0	16.5	59.0	-26.0	1.046665	100.0	1	130.0	0.0															
	393	0.0	0.0	0.0	0.0	1.0000025	100.0	0	2.7	0.0															
	412	5.0	0.0	0.0	0.0	1.022224	100.0	1	10.0	0.0															
	412	5.75	0.0	0.0	0.0	1.022224	100.0	1	11.5	0.0															
	432	0.0	0.0	0.0	0.0	1.0000025	100.0	0	12.0	0.0															
	441	0.0	1.33	10.96	-11.99	1.0000025	100.0	0	34.25	0.0															
	448	0.0	0.71	8.0	-9.0	1.015872	100.0	0	25.0	0.0															
	463	0.0	0.0	0.0	0.0	1.0079355	100.0	0	2.4	0.0															
	463	8.0	0.0	0.0	0.0	1.0079355	100.0	1	16.0	0.0															
	465	14.000000000000002	1.5	6.0	-3.0	0.985555	100.0	1	27.0	1.0															
	465	14.000000000000002	1.5	6.0	-3.0	0.985555	100.0	1	27.0	1.0															
	467	24.5	4.5	19.0	-10.0	1.0079355	100.0	1	48.0	1.0															
	471	0.0	-2.86	6.0	-6.0	0.999999	100.0	0	10.0	0.0															
	471	0.0	-5.4	5.4	-5.4	0.999999	100.0	0	9.0	0.0															
	480	0.0	-2.66	17.0	-16.0	0.999999	100.0	0	27.0	0.0															
	480	0.0	-2.66	17.0	-16.0	0.999999	100.0	0	27.0	0.0															
	480	0.0	-2.66	17.0	-16.0	0.999999	100.0	0	27.0	0.0															
	492	0.0	-0.74	8.0	-17.0	1.033334	100.0	0	23.4	0.0															
	509	0.0	0.34	2.0	-2.0	0.999999	100.0	0	4.0	0.0															
	518	0.0	0.0	0.0	0.0	1.015874	100.0	0	10.0	0.0															
	519	6.0	0.0	0.0	0.0	1.022224	100.0	1	12.0	0.0															
	529	0.0	-1.6200000000000003	4.8	-4.8	0.999999	100.0	0	8.0	0.0															
	529	0.0	-1.6200000000000003	4.8	-4.8	0.999999	100.0	0	8.0	0.0															
	529	4.0	0.0	4.8	-4.8	0.999999	100.0	1	8.0	0.0															
	535	6.0	0.0	0.0	0.0	1.022224	100.0	1	12.0	0.0															
	535	12.0	0.0	0.0	0.0	1.022224	100.0	1	24.0	0.0															
	544	4.5	1.95	2.0	1.9	1.0000025	100.0	1	9.0	0.0															
	547	0.0	0.0	2.0	0.0	1.0000025	100.0	0	12.0	0.0															
	569	6.0	0.0	0.0	0.0	1.0158755	100.0	1	12.0	0.0															
	569	15.0	0.0	0.0	0.0	1.0158755	100.0	1	30.0	0.0															
	569	5.75	0.0	0.0	0.0	1.0158755	100.0	1	11.5	0.0															
	582	8.0	1.5	7.000000000000001	-4.0	1.0000005	100.0	1	16.0	0.0															
	584	4.5	0.0	0.0	0.0	1.0158755	100.0	1	9.0	0.0															
	585	4.75	0.0	5.7	-5.7	0.999999	100.0	1	9.5	0.0															
	588	0.0	0.1	0.1	-0.1	1.000001	100.0	0	1.0	0.0															
	592	0.0	0.8199999999999998	10.0	-10.0	1.0000025	100.0	0	21.0	0.0															
	599	0.0	0.03	1.0	-1.0	1.015872	100.0	0	6.1	0.0															
	609	22.5	0.0	45.0	-45.0	0.975	100.0	1	45.0	0.0															
	609	0.0	-1.04	45.0	-45.0	0.975	100.0	0	45.0	0.0															
	611	6.0	0.0	0.0	0.0	1.022224	100.0	1	12.0	0.0															
	611	6.0	0.0	0.0	0.0	1.022224	100.0	1	12.0	0.0															
	611	6.0	0.0	0.0	0.0	1.022224	100.0	1	12.0	0.0															
	612	17.5	0.0	0.0	0.0	1.0000005	100.0	1	35.0	0.0															
	612	0.0	0.0	0.0	0.0	1.0000005	100.0	0	11.5	0.0															
	623	0.0	0.0	8.3	-8.3	1.0111115	100.0	1	8.3	-8.3															
	632	0.0	2.76	4.0	-4.0	0.999999	100.0	0	7.3	0.0															
	635	0.0	0.91	7.000000000000001	0.0	1.015872	100.0	0	15.0	0.0															
	635	7.5	3.5000000000000004	7.000000000000001	0.0	1.015872	100.0	1	15.0	0.0															
	640	119.5	-11.4	80.0	-102.8	1.078945	100.0	1	239.0	0.0															
	651	0.0	1.38	7.000000000000001	0.0	1.0000025	100.0	0	7.000000000000001	0.0															
	669	6.0	0.0	0.0	0.0	1.022224	100.0	1	12.0	0.0															
	669	6.0	0.0	0.0	0.0	1.022224	100.0	1	12.0	0.0															
	670	3.75	0.0	0.0	0.0	1.027779	100.0	1	7.5	0.0															
	670	12.0	0.0	0.0	0.0	1.027779	100.0	1	24.0	0.0															
	678	0.0	0.0	0.0	0.0	1.022224	100.0	0	6.6000000000000005	0.0															
	679	6.0	0.0	0.0	0.0	1.022224	100.0	1	12.0	0.0															
	683	4.5	0.5	6.0	-5.0	0.9444445	100.0	1	9.0	0.0															
	683	4.5	0.5	6.0	-5.0	0.9444445	100.0	1	9.0	0.0															
	683	0.0	-2.58	8.0	-5.0	0.9444445	100.0	0	11.0	0.0															
	683	5.5	1.5	8.0	-5.0	0.9444445	100.0	1	11.0	0.0															
	694	16.175	0.0	0.0	0.0	1.022222	100.0	1	32.35	0.0															
	694	6.0	0.0	0.0	0.0	1.022222	100.0	1	12.0	0.0															
	694	10.5	0.0	0.0	0.0	1.022222	100.0	1	21.0	0.0															
	698	18.5	-1.0	15.0	-17.0	0.975	100.0	1	37.0	0.0															
	698	18.5	-1.0	15.0	-17.0	0.975	100.0	1	37.0	0.0															
	697	18.5	0.0	15.0	-15.0	0.975	100.0	1	37.0	0.0															
	697	18.5	0.0	15.0	-15.0	0.975	100.0	1	37.0	0.0															
	696	18.5	-1.0	15.0	-17.0	0.975	100.0	1	37.0	0.0															
	696	18.5	-1.0	15.0	-17.0	0.975	100.0	1	37.0	0.0															
	704	2.0	0.0	2.0	-2.0	0.9444445	100.0	1	4.0	0.0															
	704	2.0	0.0	2.5	-2.5	0.9444445	100.0	1	4.0	0.0															
	704	2.85	0.0	3.0	-3.0	0.9444445	100.0	1	5.7	0.0															
	704	0.0	-2.66	6.0	-5.0	0.9444445	100.0	0	8.5	0.0															
	731	9.75	0.0	0.0	0.0	1.022224	100.0	1	19.5	0.0															
	732	19.5	0.0	18.0	-18.0	0.999999	100.0	1	39.0	0.0															
	733	5.75	0.0	0.0	0.0	1.0158755	100.0	1	11.5	0.0															
	733	16.0	0.0	0.0	0.0	1.0158755	100.0	1	32.0	0.0															
	735	0.0	0.0	0.0	0.0	1.000001	100.0	0	12.0	0.0															
	735	16.0	0.0	0.0	0.0	1.000001	100.0	1	32.0	0.0															
	736	2.5	0.0	0.1	-0.1	1.0000025	100.0	1	5.0	0.0															
	743	3.35	0.01	3.72	-3.7000000000000006	0.999999	100.0	1	6.7	0.0															
	743	2.8	0.0	3.0	-3.0	0.999999	100.0	1	5.6	0.0															
	744	13.3	-2.38	15.0	-19.76	0.999999	100.0	1	26.6	0.0															
	745	4.0	0.0	2.0	-2.0	1.022224	100.0	1	7.000000000000001	1.0															
	750	0.0	-2.78	3.0	-3.0	0.999999	100.0	0	5.0	-5.0															
	757	0.0	1.81	8.0	-8.0	0.9888895	100.0	0	23.5	0.0															
	759	0.0	0.0	0.0	0.0	0.999999	100.0	0	6.0	0.0															
	760	0.0	0.0	0.0	0.0	0.999999	100.0	0	6.0	0.0															
	759	18.75	2.0	10.0	-6.0	0.999999	100.0	1	37.5	0.0															
	760	18.75	2.0	10.0	-6.0	0.999999	100.0	1	37.5	0.0															
	761	0.0	0.06	0.06	-0.06	0.825	100.0	0	0.6	0.0															
	761	13.05	0.0	2.61	-2.61	0.825	100.0	1	26.1	0.0															
	761	0.0	0.16	0.16	-0.16	0.825	100.0	0	1.6	0.0															
	761	0.0	0.11	0.11	-0.11	0.825	100.0	0	1.1	0.0															
	765	0.0	0.0	0.0	0.0	1.0158755	100.0	0	37.5	0.0															
	765	17.0	0.0	0.0	0.0	1.0158755	100.0	1	34.0	0.0															
	785	0.0	-0.29	26.0	-26.0	0.975	100.0	0	8.0	0.0															
	785	0.0	-0.29	26.0	-26.0	0.975	100.0	0	15.0	0.0															
	786	0.0	-0.33	26.0	-26.0	0.975	100.0	0	19.0	0.0															
	800	15.5	-1.0	15.0	-17.0	0.975	100.0	1	31.0	0.0															
	800	15.5	-1.0	15.0	-17.0	0.975	100.0	1	31.0	0.0															
	801	15.5	-1.0	15.0	-17.0	0.975	100.0	1	31.0	0.0															
	801	15.5	-1.0	15.0	-17.0	0.975	100.0	1	31.0	0.0															
	802	15.5	-1.0	15.0	-17.0	0.975	100.0	1	31.0	0.0															
	802	15.5	-1.0	15.0	-17.0	0.975	100.0	1	31.0	0.0															
	806	20.4	0.0	0.0	0.0	1.0000025	100.0	1	40.8	0.0															
	814	16.5	-1.5	6.0	-9.0	1.015872	100.0	1	32.0	1.0															
	814	0.0	0.0	6.0	-9.0	1.015872	100.0	0	32.0	1.0															
	815	16.5	-1.5	6.0	-9.0	1.015872	100.0	1	32.0	1.0															
	815	16.5	-1.5	6.0	-9.0	1.015872	100.0	1	32.0	1.0															
	815	16.5	-1.5	6.0	-9.0	1.015872	100.0	1	32.0	1.0															
	815	16.5	-1.5	6.0	-9.0	1.015872	100.0	1	32.0	1.0															
	825	0.0	1.35	3.0	-3.0	1.0000025	100.0	0	13.0	0.0															
	825	3.5000000000000004	0.0	3.0	-3.0	1.0000025	100.0	1	7.000000000000001	0.0															
	828	0.0	0.0	0.0	0.0	1.022222	100.0	0	2.4	0.0															
	829	13.5	0.0	10.0	-10.0	1.0000025	100.0	1	27.0	0.0															
	830	0.0	-2.71	10.0	-10.0	0.9444445	100.0	0	20.0	0.0															
	832	0.0	1.34	3.1400000000000006	-3.4300000000000006	1.0000025	100.0	0	9.8	0.0															
...
];

%% branch data
%    f_bus    t_bus    r    x    b    rateA    rateB    rateC    ratio    angle    status    angmin    angmax
mpc.branch = [
	4644	1	0.005726	0.010482	0.0	2186.0	2186.0	2186.0	0	0	1	-29.999999999999996	29.999999999999996								
	5243	1	0.01284	0.025679	0.0	910.0	910.0	910.0	0	0	1	-29.999999999999996	29.999999999999996								
	1682	2	0.005799	0.010615	0.0075	2441.0	2441.0	2441.0	0	0	1	-29.999999999999996	29.999999999999996								
	1673	3	0.134039	0.309398	0.0035	91.0	91.0	91.0	0	0	1	-29.999999999999996	29.999999999999996								
	2302	3	0.049131	0.133283	0.0015	215.0	215.0	215.0	0	0	1	-29.999999999999996	29.999999999999996								
	694	4	0.025926	0.109136	0.0002	281.0	281.0	281.0	0	0	1	-29.999999999999996	29.999999999999996								
	3940	4	0.05	0.126914	0.0006	225.99999999999997	225.99999999999997	225.99999999999997	0	0	1	-29.999999999999996	29.999999999999996								
	5043	4	0.02321	0.097407	0.0016	315.0	315.0	315.0	0	0	1	-29.999999999999996	29.999999999999996								
	4414	5	0.040564	0.113631	0.0013	245.00000000000003	245.00000000000003	245.00000000000003	0	0	1	-29.999999999999996	29.999999999999996								
	2780	6	0.006047	0.020912	0.0222	1398.0	1398.0	1398.0	0	0	1	-29.999999999999996	29.999999999999996								
	2781	7	0.012472	0.032099	0.0061	884.0	884.0	884.0	0	0	1	-29.999999999999996	29.999999999999996								
	2468	8	0.002607	0.017462	0.0324	540.0	540.0	540.0	0	0	1	-29.999999999999996	29.999999999999996								
	471	9	0.053893	0.14258	0.0017	194.0	194.0	194.0	0	0	1	-29.999999999999996	29.999999999999996								
	11	10	0.000247	0.001235	0.0005	24078.0	24078.0	24078.0	0	0	1	-29.999999999999996	29.999999999999996								
	11	10	0.000247	0.001235	0.0002	24078.0	24078.0	24078.0	0	0	1	-29.999999999999996	29.999999999999996								
	30	11	0.039753	0.100988	0.0047	284.0	284.0	284.0	0	0	1	-29.999999999999996	29.999999999999996								
	2930	11	0.037654	0.096173	0.001	294.0	294.0	294.0	0	0	1	-29.999999999999996	29.999999999999996								
	2180	12	0.014613	0.060721	0.0008	487.0	487.0	487.0	0	0	1	-29.999999999999996	29.999999999999996								
	4018	12	0.034064	0.121139	0.0015	242.0	242.0	242.0	0	0	1	-29.999999999999996	29.999999999999996								
	4020	12	0.000242	0.000442	0.0004	60354.99999999999	60354.99999999999	60354.99999999999	0	0	1	-29.999999999999996	29.999999999999996								
	115	13	2.1e-5	0.000125	0.1386	737.0	737.0	737.0	0	0	1	-29.999999999999996	29.999999999999996								
	2336	13	0.000145	0.001877	0.0635	2487.0	2487.0	2487.0	0	0	1	-29.999999999999996	29.999999999999996								
	4574	13	0.000319	0.003234	0.0838	1841.0	1841.0	1841.0	0	0	1	-29.999999999999996	29.999999999999996								
	116	13	2.1e-5	0.000125	0.1386	737.0	737.0	737.0	0	0	1	-29.999999999999996	29.999999999999996								
	1224	14	0.04	0.134198	0.0274	217.0	217.0	217.0	0	0	1	-29.999999999999996	29.999999999999996								
	2875	14	0.012222	0.052346	0.0026	565.0	565.0	565.0	0	0	1	-29.999999999999996	29.999999999999996								
	4592	14	0.007284	0.045432	0.0024	660.0	660.0	660.0	0	0	1	-29.999999999999996	29.999999999999996								
	4950	14	0.059963	0.154222	0.0236	184.0	184.0	184.0	0	0	1	-29.999999999999996	29.999999999999996								
	5229	14	0.018025	0.110988	0.0073	270.0	270.0	270.0	0	0	1	-29.999999999999996	29.999999999999996								
	2875	14	0.012222	0.052593	0.0032	562.0	562.0	562.0	0	0	1	-29.999999999999996	29.999999999999996								
	4592	14	0.007284	0.044938	0.0024	667.0	667.0	667.0	0	0	1	-29.999999999999996	29.999999999999996								
	2907	15	0.037541	0.100529	0.0011	284.0	284.0	284.0	0	0	1	-29.999999999999996	29.999999999999996								
	4126	15	0.090199	0.211388	0.0023	133.0	133.0	133.0	0	0	1	-29.999999999999996	29.999999999999996								
	4454	15	0.09801	0.267574	0.0	107.0	107.0	107.0	0	0	1	-29.999999999999996	29.999999999999996								
	251	16	0.071806	0.191484	0.0019	149.0	149.0	149.0	0	0	1	-29.999999999999996	29.999999999999996								
	339	16	0.119174	0.284958	0.0044	99.0	99.0	99.0	0	0	1	-29.999999999999996	29.999999999999996								
	5835	17	0.022346	0.061111	0.0029	457.0	457.0	457.0	0	0	1	-29.999999999999996	29.999999999999996								
	3728	18	0.009383	0.019753	0.0	1194.0	1194.0	1194.0	0	0	1	-29.999999999999996	29.999999999999996								
	5091	19	0.000252	0.000504	0.0	52398.0	52398.0	52398.0	0	0	1	-29.999999999999996	29.999999999999996								
	3728	20	0.001975	0.004444	0.0	5369.0	5369.0	5369.0	0	0	1	-29.999999999999996	29.999999999999996								
	1353	21	0.036296	0.099012	0.0045	282.0	282.0	282.0	0	0	1	-29.999999999999996	29.999999999999996								
	1598	21	0.032716	0.089136	0.0057	313.0	313.0	313.0	0	0	1	-29.999999999999996	29.999999999999996								
	1842	22	0.138574	0.351474	0.0058	81.0	81.0	81.0	0	0	1	-29.999999999999996	29.999999999999996								
	5020	22	0.094407	0.210456	0.0044	132.0	132.0	132.0	0	0	1	-29.999999999999996	29.999999999999996								
	1156	23	0.047115	0.117158	0.001	234.0	234.0	234.0	0	0	1	-29.999999999999996	29.999999999999996								
	2705	23	0.039557	0.120937	0.0132	233.0	233.0	233.0	0	0	1	-29.999999999999996	29.999999999999996								
	3425	23	0.022676	0.062484	0.0007	445.0	445.0	445.0	0	0	1	-29.999999999999996	29.999999999999996								
	144	24	0.064568	0.16716	0.0113	180.0	180.0	180.0	0	0	1	-29.999999999999996	29.999999999999996								
	1281	24	0.048605	0.128481	0.0062	235.0	235.0	235.0	0	0	1	-29.999999999999996	29.999999999999996								
	491	25	0.004815	0.02963	0.0016	1048.0	1048.0	1048.0	0	0	1	-29.999999999999996	29.999999999999996								
	2092	25	0.007309	0.04463	0.0073	710.0	710.0	710.0	0	0	1	-29.999999999999996	29.999999999999996								
	611	26	0.034321	0.145802	0.0073	199.0	199.0	199.0	0	0	1	-29.999999999999996	29.999999999999996								
	1865	26	0.004815	0.009753	0.0005	2731.0	2731.0	2731.0	0	0	1	-29.999999999999996	29.999999999999996								
	2604	26	0.049012	0.133704	0.0063	209.0	209.0	209.0	0	0	1	-29.999999999999996	29.999999999999996								
	2923	26	0.04642	0.126543	0.0058	221.0	221.0	221.0	0	0	1	-29.999999999999996	29.999999999999996								
	3339	26	0.046296	0.125926	0.006	222.00000000000003	222.00000000000003	222.00000000000003	0	0	1	-29.999999999999996	29.999999999999996								
	4629	26	0.053704	0.136753	0.0065	202.99999999999997	202.99999999999997	202.99999999999997	0	0	1	-29.999999999999996	29.999999999999996								
	2923	26	0.03358	0.120988	0.0062	237.0	237.0	237.0	0	0	1	-29.999999999999996	29.999999999999996								
	534	27	0.006163	0.041067	0.0759	446.0	446.0	446.0	0	0	1	-29.999999999999996	29.999999999999996								
	2349	27	0.000652	0.004369	0.0081	558.0	558.0	558.0	0	0	1	-29.999999999999996	29.999999999999996								
	2686	28	0.050945	0.131922	0.0015	216.0	216.0	216.0	0	0	1	-29.999999999999996	29.999999999999996								
	3893	28	0.058781	0.149005	0.0017	190.0	190.0	190.0	0	0	1	-29.999999999999996	29.999999999999996								
	2888	29	0.067019	0.137566	0.0037	193.0	193.0	193.0	0	0	1	-29.999999999999996	29.999999999999996								
	3321	29	0.032754	0.088939	0.0039	312.0	312.0	312.0	0	0	1	-29.999999999999996	29.999999999999996								
	3321	29	0.030184	0.080096	0.0053	345.0	345.0	345.0	0	0	1	-29.999999999999996	29.999999999999996								
	144	30	0.066049	0.187778	0.0099	161.0	161.0	161.0	0	0	1	-29.999999999999996	29.999999999999996								
	1553	30	0.065062	0.133704	0.0062	212.0	212.0	212.0	0	0	1	-29.999999999999996	29.999999999999996								
	4836	30	0.041728	0.106049	0.005	281.0	281.0	281.0	0	0	1	-29.999999999999996	29.999999999999996								
	150	31	0.009574	0.03875	0.0114	740.0	740.0	740.0	0	0	1	-29.999999999999996	29.999999999999996								
	3162	31	0.000171	0.000313	0.0002	82782.0	82782.0	82782.0	0	0	1	-29.999999999999996	29.999999999999996								
	3693	31	0.034266	0.09423	0.001	295.0	295.0	295.0	0	0	1	-29.999999999999996	29.999999999999996								
	4740	31	0.006803	0.028219	0.0	1018.0	1018.0	1018.0	0	0	1	-29.999999999999996	29.999999999999996								
	150	31	0.008566	0.037541	0.0121	767.0	767.0	767.0	0	0	1	-29.999999999999996	29.999999999999996								
	3730	32	0.009733	0.034089	0.0185	902.0	902.0	902.0	0	0	1	-29.999999999999996	29.999999999999996								
	368	34	0.000277	0.002015	0.003	288.0	288.0	288.0	0	0	1	-29.999999999999996	29.999999999999996								
	1016	33	0.00881	0.033995	0.0607	289.0	289.0	289.0	0	0	1	-29.999999999999996	29.999999999999996								
	1157	33	0.004642	0.019832	0.0354	254.99999999999997	254.99999999999997	254.99999999999997	0	0	1	-29.999999999999996	29.999999999999996								
	2582	34	0.008861	0.03506	0.0623	288.0	288.0	288.0	0	0	1	-29.999999999999996	29.999999999999996								
	2706	34	0.006993	0.032869	0.0557	254.99999999999997	254.99999999999997	254.99999999999997	0	0	1	-29.999999999999996	29.999999999999996								
	4745	33	0.002173	0.008731	0.0152	3440.9999999999995	3440.9999999999995	3440.9999999999995	0	0	1	-29.999999999999996	29.999999999999996								
	4853	34	0.00077	0.003121	0.0051	9629.0	9629.0	9629.0	0	0	1	-29.999999999999996	29.999999999999996								
	5670	33	0.004109	0.016138	0.0284	288.0	288.0	288.0	0	0	1	-29.999999999999996	29.999999999999996								
	370	35	8.3e-5	0.000907	0.0202	1034.0	1034.0	1034.0	0	0	1	-29.999999999999996	29.999999999999996								
	1108	35	0.000552	0.006726	0.0939	1786.0	1786.0	1786.0	0	0	1	-29.999999999999996	29.999999999999996								
	2149	35	0.000512	0.008012	0.2455	2462.0	2462.0	2462.0	0	0	1	-29.999999999999996	29.999999999999996								
	3135	35	0.001107	0.00918	0.1906	1644.0000000000002	1644.0000000000002	1644.0000000000002	0	0	1	-29.999999999999996	29.999999999999996								
	369	36	6.2e-5	0.000741	0.0173	1095.0	1095.0	1095.0	0	0	1	-29.999999999999996	29.999999999999996								
	2149	35	0.000512	0.008019	0.2455	2462.0	2462.0	2462.0	0	0	1	-29.999999999999996	29.999999999999996								
	2149	36	0.001153	0.013123	0.1841	1433.0	1433.0	1433.0	0	0	1	-29.999999999999996	29.999999999999996								
	5228	37	0.055933	0.120685	0.0013	229.0	229.0	229.0	0	0	1	-29.999999999999996	29.999999999999996								
	5514	37	0.039053	0.084404	0.001	328.0	328.0	328.0	0	0	1	-29.999999999999996	29.999999999999996								
	724	38	0.00252	0.006551	0.0001	4462.0	4462.0	4462.0	0	0	1	-29.999999999999996	29.999999999999996								
	1228	39	0.009877	0.042222	0.0021	697.0	697.0	697.0	0	0	1	-29.999999999999996	29.999999999999996								
	5809	39	0.024815	0.063086	0.0029	446.0	446.0	446.0	0	0	1	-29.999999999999996	29.999999999999996								
	1228	39	0.009877	0.042222	0.0021	697.0	697.0	697.0	0	0	1	-29.999999999999996	29.999999999999996								
	2250	40	0.056173	0.142593	0.0066	198.0	198.0	198.0	0	0	1	-29.999999999999996	29.999999999999996								
	4592	40	0.034444	0.109012	0.0076	266.0	266.0	266.0	0	0	1	-29.999999999999996	29.999999999999996								
	431	41	0.000158	0.000672	0.0719	331.0	331.0	331.0	0	0	1	-29.999999999999996	29.999999999999996								
	3954	41	4.5e-5	8.9e-5	0.002	268.0	268.0	268.0	0	0	1	-29.999999999999996	29.999999999999996								
	1482	42	0.01096	0.020063	0.009	1465.0	1465.0	1465.0	0	0	1	-29.999999999999996	29.999999999999996								
	2766	42	0.002268	0.008818	0.0099	3678.0	3678.0	3678.0	0	0	1	-29.999999999999996	29.999999999999996								
	2725	43	0.001481	0.006296	0.0039	4689.0	4689.0	4689.0	0	0	1	-29.999999999999996	29.999999999999996								
	3488	44	0.050617	0.137012	0.009	202.99999999999997	202.99999999999997	202.99999999999997	0	0	1	-29.999999999999996	29.999999999999996								
	4324	44	0.074326	0.194507	0.0021	142.0	142.0	142.0	0	0	1	-29.999999999999996	29.999999999999996								
	5094	45	0.000247	0.000741	0.0	38027.0	38027.0	38027.0	0	0	1	-29.999999999999996	29.999999999999996								
	1084	46	0.049131	0.134039	0.001	206.99999999999997	206.99999999999997	206.99999999999997	0	0	1	-29.999999999999996	29.999999999999996								
	2193	46	0.033258	0.090955	0.001	305.0	305.0	305.0	0	0	1	-29.999999999999996	29.999999999999996								
	3305	46	0.067437	0.123442	0.001	210.0	210.0	210.0	0	0	1	-29.999999999999996	29.999999999999996								
	1084	47	0.037289	0.118166	0.001	239.0	239.0	239.0	0	0	1	-29.999999999999996	29.999999999999996								
	5362	48	0.021358	0.057037	0.0005	573.0	573.0	573.0	0	0	1	-29.999999999999996	29.999999999999996								
	1222	49	0.071303	0.180902	0.0021	152.0	152.0	152.0	0	0	1	-29.999999999999996	29.999999999999996								
	2344	49	0.071554	0.18191	0.0021	152.0	152.0	152.0	0	0	1	-29.999999999999996	29.999999999999996								
	471	50	0.028193	0.104535	0.0013	276.0	276.0	276.0	0	0	1	-29.999999999999996	29.999999999999996								
	1676	50	0.055404	0.171429	0.01	166.0	166.0	166.0	0	0	1	-29.999999999999996	29.999999999999996								
	3554	50	0.010834	0.071554	0.001	413.0	413.0	413.0	0	0	1	-29.999999999999996	29.999999999999996								
	4626	50	0.013857	0.030234	0.0003	897.0000000000001	897.0000000000001	897.0000000000001	0	0	1	-29.999999999999996	29.999999999999996								
	3554	50	0.011414	0.070648	0.0009	417.0	417.0	417.0	0	0	1	-29.999999999999996	29.999999999999996								
	4626	50	0.013757	0.030108	0.0003	901.0	901.0	901.0	0	0	1	-29.999999999999996	29.999999999999996								
	1195	51	0.00478	0.028622	0.0547	455.0	455.0	455.0	0	0	1	-29.999999999999996	29.999999999999996								
	1196	51	0.00478	0.028583	0.0547	455.0	455.0	455.0	0	0	1	-29.999999999999996	29.999999999999996								
	166	52	0.01284	0.032716	0.0015	846.0000000000001	846.0000000000001	846.0000000000001	0	0	1	-29.999999999999996	29.999999999999996								
	5488	52	0.014198	0.036049	0.0016	767.0	767.0	767.0	0	0	1	-29.999999999999996	29.999999999999996								
	3349	53	0.005291	0.021668	0.0003	1285.0	1285.0	1285.0	0	0	1	-29.999999999999996	29.999999999999996								
	2770	54	0.01358	0.047654	0.0023	600.0	600.0	600.0	0	0	1	-29.999999999999996	29.999999999999996								
	375	55	0.000257	0.000514	0.0294	53862.0	53862.0	53862.0	0	0	1	-29.999999999999996	29.999999999999996								
	2695	56	0.000257	0.002153	0.2147	451.99999999999994	451.99999999999994	451.99999999999994	0	0	1	-29.999999999999996	29.999999999999996								
	3427	56	0.000277	0.000869	0.0931	480.99999999999994	480.99999999999994	480.99999999999994	0	0	1	-29.999999999999996	29.999999999999996								
	5095	57	0.000756	0.00252	0.0	11560.0	11560.0	11560.0	0	0	1	-29.999999999999996	29.999999999999996								
	3390	58	0.000237	0.00083	0.1863	268.0	268.0	268.0	0	0	1	-29.999999999999996	29.999999999999996								
	3566	58	0.000178	0.000612	0.1377	268.0	268.0	268.0	0	0	1	-29.999999999999996	29.999999999999996								
	142	59	0.030486	0.076342	0.002	370.0	370.0	370.0	0	0	1	-29.999999999999996	29.999999999999996								
	1652	59	0.011086	0.024691	0.0015	1124.0	1124.0	1124.0	0	0	1	-29.999999999999996	29.999999999999996								
	2478	60	0.044344	0.170572	0.0021	173.0	173.0	173.0	0	0	1	-29.999999999999996	29.999999999999996								
	3526	60	0.036709	0.151776	0.0017	195.0	195.0	195.0	0	0	1	-29.999999999999996	29.999999999999996								
	2227	61	0.017788	0.048551	0.0006	589.0	589.0	589.0	0	0	1	-29.999999999999996	29.999999999999996								
	2636	61	0.057521	0.145251	0.0017	195.0	195.0	195.0	0	0	1	-29.999999999999996	29.999999999999996								
	2047	62	0.014109	0.057949	0.0029	509.99999999999994	509.99999999999994	509.99999999999994	0	0	1	-29.999999999999996	29.999999999999996								
	2951	62	0.007055	0.02973	0.0014	996.0000000000001	996.0000000000001	996.0000000000001	0	0	1	-29.999999999999996	29.999999999999996								
	373	63	0.024263	0.065911	0.0007	434.0	434.0	434.0	0	0	1	-29.999999999999996	29.999999999999996								
	3082	63	0.020912	0.059209	0.0016	484.99999999999994	484.99999999999994	484.99999999999994	0	0	1	-29.999999999999996	29.999999999999996								
	145	64	0.002568	0.011753	0.0203	424.0	424.0	424.0	0	0	1	-29.999999999999996	29.999999999999996								
	5105	64	0.002568	0.011615	0.0228	290.0	290.0	290.0	0	0	1	-29.999999999999996	29.999999999999996								
	4604	65	0.006299	0.033585	0.0599	891.0	891.0	891.0	0	0	1	-29.999999999999996	29.999999999999996								
	4604	65	0.006299	0.033661	0.06	889.0	889.0	889.0	0	0	1	-29.999999999999996	29.999999999999996								
	1546	66	0.102293	0.226757	0.0025	119.0	119.0	119.0	0	0	1	-29.999999999999996	29.999999999999996								
	2291	66	0.177551	0.405291	0.0046	67.0	67.0	67.0	0	0	1	-29.999999999999996	29.999999999999996								
	3249	66	0.088264	0.161566	0.0017	161.0	161.0	161.0	0	0	1	-29.999999999999996	29.999999999999996								
	3031	67	0.007307	0.014613	0.0002	1862.0	1862.0	1862.0	0	0	1	-29.999999999999996	29.999999999999996								
	2193	68	0.043336	0.11867	0.001	234.0	234.0	234.0	0	0	1	-29.999999999999996	29.999999999999996								
	2884	68	0.067775	0.139834	0.001	191.0	191.0	191.0	0	0	1	-29.999999999999996	29.999999999999996								
	4534	68	0.047367	0.16125	0.0021	176.0	176.0	176.0	0	0	1	-29.999999999999996	29.999999999999996								
	5148	68	0.004031	0.016629	0.001	1726.0000000000002	1726.0000000000002	1726.0000000000002	0	0	1	-29.999999999999996	29.999999999999996								
	4607	69	0.073066	0.205089	0.0022	136.0	136.0	136.0	0	0	1	-29.999999999999996	29.999999999999996								
	5096	70	4.8e-5	8.8e-5	0.0001	303410.0	303410.0	303410.0	0	0	1	-29.999999999999996	29.999999999999996								
	2164	71	0.000252	0.00252	0.0008	11313.0	11313.0	11313.0	0	0	1	-29.999999999999996	29.999999999999996								
	3145	71	0.030738	0.088687	0.0169	306.0	306.0	306.0	0	0	1	-29.999999999999996	29.999999999999996								
	5097	71	0.006551	0.016377	0.0171	1625.0	1625.0	1625.0	0	0	1	-29.999999999999996	29.999999999999996								
	3145	71	0.025195	0.07483	0.0204	363.0	363.0	363.0	0	0	1	-29.999999999999996	29.999999999999996								
	3747	72	9.9e-5	0.00077	0.078	379.0	379.0	379.0	0	0	1	-29.999999999999996	29.999999999999996								
	3747	73	9.9e-5	0.00077	0.077	379.0	379.0	379.0	0	0	1	-29.999999999999996	29.999999999999996								
	5105	74	0.000514	0.003437	0.0061	290.0	290.0	290.0	0	0	1	-29.999999999999996	29.999999999999996								
	5125	74	0.005476	0.036879	0.1255	522.0	522.0	522.0	0	0	1	-29.999999999999996	29.999999999999996								
	145	74	0.000514	0.003457	0.0061	418.0	418.0	418.0	0	0	1	-29.999999999999996	29.999999999999996								
	4961	75	0.017531	0.046914	0.0023	596.0	596.0	596.0	0	0	1	-29.999999999999996	29.999999999999996								
	2083	75	0.005309	0.014321	0.0006	1948.9999999999998	1948.9999999999998	1948.9999999999998	0	0	1	-29.999999999999996	29.999999999999996								
	3083	76	0.003477	0.01118	0.0187	304.0	304.0	304.0	0	0	1	-29.999999999999996	29.999999999999996								
	3833	76	0.000612	0.003121	0.0152	270.0	270.0	270.0	0	0	1	-29.999999999999996	29.999999999999996								
	2343	77	0.013857	0.035525	0.0004	775.0	775.0	775.0	0	0	1	-29.999999999999996	29.999999999999996								
	242	78	0.002771	0.008314	0.0083	3471.0	3471.0	3471.0	0	0	1	-29.999999999999996	29.999999999999996								
	4559	78	0.000151	0.000302	0.0	90076.0	90076.0	90076.0	0	0	1	-29.999999999999996	29.999999999999996								
	629	79	0.010758	0.02187	0.0071	1176.0	1176.0	1176.0	0	0	1	-29.999999999999996	29.999999999999996								
	1870	79	0.003779	0.014613	0.0198	1898.9999999999998	1898.9999999999998	1898.9999999999998	0	0	1	-29.999999999999996	29.999999999999996								
	2411	79	0.008314	0.017057	0.024	1510.0	1510.0	1510.0	0	0	1	-29.999999999999996	29.999999999999996								
	4078	79	0.000252	0.001764	0.0043	16079.0	16079.0	16079.0	0	0	1	-29.999999999999996	29.999999999999996								
	629	79	0.010758	0.02187	0.0071	1176.0	1176.0	1176.0	0	0	1	-29.999999999999996	29.999999999999996								
	4077	79	0.000302	0.001562	0.0037	18009.0	18009.0	18009.0	0	0	1	-29.999999999999996	29.999999999999996								
	4079	81	2.4e-5	0.000144	0.0213	701.0	701.0	701.0	0	0	1	-29.999999999999996	29.999999999999996								
	4079	80	7.1e-5	0.000162	0.0162	250.99999999999997	250.99999999999997	250.99999999999997	0	0	1	-29.999999999999996	29.999999999999996								
	674	82	0.068027	0.173091	0.002	159.0	159.0	159.0	0	0	1	-29.999999999999996	29.999999999999996								
	797	82	0.027211	0.068783	0.001	400.0	400.0	400.0	0	0	1	-29.999999999999996	29.999999999999996								
	2072	82	0.03099	0.202822	0.002	144.0	144.0	144.0	0	0	1	-29.999999999999996	29.999999999999996								
	3485	83	0.000257	0.001165	0.002	405.0	405.0	405.0	0	0	1	-29.999999999999996	29.999999999999996								
	2128	84	0.045603	0.11741	0.001	235.0	235.0	235.0	0	0	1	-29.999999999999996	29.999999999999996								
	3803	84	0.008566	0.024691	0.0	1130.0	1130.0	1130.0	0	0	1	-29.999999999999996	29.999999999999996								
	5100	85	0.047317	0.131595	0.0015	212.0	212.0	212.0	0	0	1	-29.999999999999996	29.999999999999996								
	2810	86	0.040494	0.128889	0.0064	220.00000000000003	220.00000000000003	220.00000000000003	0	0	1	-29.999999999999996	29.999999999999996								
	3512	86	0.037778	0.097037	0.0045	286.0	286.0	286.0	0	0	1	-29.999999999999996	29.999999999999996								
	3772	87	0.032071	0.058705	0.0006	455.0	455.0	455.0	0	0	1	-29.999999999999996	29.999999999999996								
	4348	87	0.062887	0.204157	0.002	143.0	143.0	143.0	0	0	1	-29.999999999999996	29.999999999999996								
	3772	87	0.032026	0.058624	0.0006	455.99999999999994	455.99999999999994	455.99999999999994	0	0	1	-29.999999999999996	29.999999999999996								
	1617	88	0.075838	0.224742	0.0027	125.0	125.0	125.0	0	0	1	-29.999999999999996	29.999999999999996								
	1706	88	0.028471	0.089695	0.001	314.0	314.0	314.0	0	0	1	-29.999999999999996	29.999999999999996								
	3644	88	0.080373	0.255732	0.003	111.00000000000001	111.00000000000001	111.00000000000001	0	0	1	-29.999999999999996	29.999999999999996								
	5558	88	0.000252	0.000504	0.0	52398.0	52398.0	52398.0	0	0	1	-29.999999999999996	29.999999999999996								
	2498	89	0.033531	0.087235	0.0166	325.0	325.0	325.0	0	0	1	-29.999999999999996	29.999999999999996								
	4228	89	0.03037	0.08321	0.0039	343.0	343.0	343.0	0	0	1	-29.999999999999996	29.999999999999996								
	5101	90	0.000444	0.001136	0.0	21404.0	21404.0	21404.0	0	0	1	-29.999999999999996	29.999999999999996								
	3728	91	0.057284	0.130864	0.0	183.0	183.0	183.0	0	0	1	-29.999999999999996	29.999999999999996								
	647	92	0.054749	0.157445	0.0027	178.0	178.0	178.0	0	0	1	-29.999999999999996	29.999999999999996								
	4057	92	0.038549	0.103049	0.0012	269.0	269.0	269.0	0	0	1	-29.999999999999996	29.999999999999996								
...
];

%%-----  OPF Data  -----%%
%% cost data
%    1    startup    shutdown    n    x1    y1    ...    xn    yn
%    2    startup    shutdown    n    c(n-1)    ...    c0
mpc.gencost = [
	2	0.0	0.0	2	34.719101	0.0
	2	0.0	0.0	2	27.265118	0.0
	2	0.0	0.0	2	44.019985	0.0
	2	0.0	0.0	2	125.857376	0.0
	2	0.0	0.0	2	112.274748	0.0
	2	0.0	0.0	2	16.070751	0.0
	2	0.0	0.0	2	119.38003	0.0
	2	0.0	0.0	2	97.079386	0.0
	2	0.0	0.0	2	34.189962	0.0
	2	0.0	0.0	2	123.25909700000001	0.0
	2	0.0	0.0	2	100.53207200000001	0.0
	2	0.0	0.0	2	33.3964	0.0
	2	0.0	0.0	2	18.678889	0.0
	2	0.0	0.0	2	54.90829300000001	0.0
	2	0.0	0.0	2	42.95504700000001	0.0
	2	0.0	0.0	2	22.606677	0.0
	2	0.0	0.0	2	31.523451	0.0
	2	0.0	0.0	2	39.638733	0.0
	2	0.0	0.0	2	117.834409	0.0
	2	0.0	0.0	2	20.083247	0.0
	2	0.0	0.0	2	38.792247	0.0
	2	0.0	0.0	2	100.515196	0.0
	2	0.0	0.0	2	23.151628000000002	0.0
	2	0.0	0.0	2	29.07409	0.0
	2	0.0	0.0	2	24.793597000000002	0.0
	2	0.0	0.0	2	27.35702	0.0
	2	0.0	0.0	2	109.277329	0.0
	2	0.0	0.0	2	48.491471000000004	0.0
	2	0.0	0.0	2	115.91951900000001	0.0
	2	0.0	0.0	2	35.940816	0.0
	2	0.0	0.0	2	17.055135	0.0
	2	0.0	0.0	2	17.788534	0.0
	2	0.0	0.0	2	25.292879	0.0
	2	0.0	0.0	2	53.056287	0.0
	2	0.0	0.0	2	117.368659	0.0
	2	0.0	0.0	2	37.412142	0.0
	2	0.0	0.0	2	18.01763	0.0
	2	0.0	0.0	2	85.173223	0.0
	2	0.0	0.0	2	38.124945	0.0
	2	0.0	0.0	2	121.165706	0.0
	2	0.0	0.0	2	31.841243	0.0
	2	0.0	0.0	2	31.416093	0.0
	2	0.0	0.0	2	89.218155	0.0
	2	0.0	0.0	2	40.960757	0.0
	2	0.0	0.0	2	119.606964	0.0
	2	0.0	0.0	2	118.028872	0.0
	2	0.0	0.0	2	128.292721	0.0
	2	0.0	0.0	2	24.252739	0.0
	2	0.0	0.0	2	26.604131	0.0
	2	0.0	0.0	2	112.053547	0.0
	2	0.0	0.0	2	28.695640000000004	0.0
	2	0.0	0.0	2	110.917974	0.0
	2	0.0	0.0	2	98.578795	0.0
	2	0.0	0.0	2	34.549157	0.0
	2	0.0	0.0	2	24.612219	0.0
	2	0.0	0.0	2	61.443741	0.0
	2	0.0	0.0	2	44.17917500000001	0.0
	2	0.0	0.0	2	36.208485	0.0
	2	0.0	0.0	2	1.6625920000000003	0.0
	2	0.0	0.0	2	23.923511000000005	0.0
	2	0.0	0.0	2	126.105536	0.0
	2	0.0	0.0	2	44.572834	0.0
	2	0.0	0.0	2	14.215485	0.0
	2	0.0	0.0	2	29.060489000000004	0.0
	2	0.0	0.0	2	38.353876	0.0
	2	0.0	0.0	2	34.437419	0.0
	2	0.0	0.0	2	38.404293	0.0
	2	0.0	0.0	2	0.0	0.0
	2	0.0	0.0	2	0.0	0.0
	2	0.0	0.0	2	37.769362	0.0
	2	0.0	0.0	2	33.537122	0.0
	2	0.0	0.0	2	111.28659100000002	0.0
	2	0.0	0.0	2	23.822099000000005	0.0
	2	0.0	0.0	2	24.186204	0.0
	2	0.0	0.0	2	19.176649	0.0
	2	0.0	0.0	2	122.465506	0.0
	2	0.0	0.0	2	106.703695	0.0
	2	0.0	0.0	2	107.728291	0.0
	2	0.0	0.0	2	115.467444	0.0
	2	0.0	0.0	2	32.860206	0.0
	2	0.0	0.0	2	24.435021	0.0
	2	0.0	0.0	2	23.746964	0.0
	2	0.0	0.0	2	13.628857	0.0
	2	0.0	0.0	2	116.967755	0.0
	2	0.0	0.0	2	18.652095	0.0
	2	0.0	0.0	2	111.581812	0.0
	2	0.0	0.0	2	35.235955	0.0
	2	0.0	0.0	2	31.468556	0.0
	2	0.0	0.0	2	17.794314	0.0
	2	0.0	0.0	2	105.683734	0.0
	2	0.0	0.0	2	48.255781	0.0
	2	0.0	0.0	2	53.838414	0.0
	2	0.0	0.0	2	37.254685	0.0
	2	0.0	0.0	2	35.434555	0.0
	2	0.0	0.0	2	98.508658	0.0
	2	0.0	0.0	2	39.539658	0.0
	2	0.0	0.0	2	101.37738100000001	0.0
	2	0.0	0.0	2	130.391311	0.0
	2	0.0	0.0	2	38.239645	0.0
	2	0.0	0.0	2	107.473273	0.0
	2	0.0	0.0	2	107.60409	0.0
	2	0.0	0.0	2	106.27103600000001	0.0
	2	0.0	0.0	2	19.429866	0.0
	2	0.0	0.0	2	94.368814	0.0
	2	0.0	0.0	2	16.652288	0.0
	2	0.0	0.0	2	24.600913000000002	0.0
	2	0.0	0.0	2	32.654925	0.0
	2	0.0	0.0	2	117.129387	0.0
	2	0.0	0.0	2	41.53188	0.0
	2	0.0	0.0	2	23.021147000000003	0.0
	2	0.0	0.0	2	118.716028	0.0
	2	0.0	0.0	2	38.794253	0.0
	2	0.0	0.0	2	22.764542	0.0
	2	0.0	0.0	2	46.05863900000001	0.0
	2	0.0	0.0	2	47.141387	0.0
	2	0.0	0.0	2	34.299414	0.0
	2	0.0	0.0	2	122.796127	0.0
	2	0.0	0.0	2	28.249014	0.0
	2	0.0	0.0	2	37.079776	0.0
	2	0.0	0.0	2	105.25037200000001	0.0
	2	0.0	0.0	2	37.195589	0.0
	2	0.0	0.0	2	46.85367200000001	0.0
	2	0.0	0.0	2	19.301367	0.0
	2	0.0	0.0	2	56.56614	0.0
	2	0.0	0.0	2	36.436204	0.0
	2	0.0	0.0	2	25.587332000000004	0.0
	2	0.0	0.0	2	17.976528	0.0
	2	0.0	0.0	2	22.670915	0.0
	2	0.0	0.0	2	6.815549	0.0
	2	0.0	0.0	2	99.511273	0.0
	2	0.0	0.0	2	39.593521	0.0
	2	0.0	0.0	2	50.72026700000001	0.0
	2	0.0	0.0	2	48.945291	0.0
	2	0.0	0.0	2	20.737080000000002	0.0
	2	0.0	0.0	2	40.340923	0.0
	2	0.0	0.0	2	42.906874	0.0
	2	0.0	0.0	2	124.031387	0.0
	2	0.0	0.0	2	24.544045	0.0
	2	0.0	0.0	2	33.300055	0.0
	2	0.0	0.0	2	33.258305	0.0
	2	0.0	0.0	2	30.190997	0.0
	2	0.0	0.0	2	24.450705	0.0
	2	0.0	0.0	2	29.794383	0.0
	2	0.0	0.0	2	119.788062	0.0
	2	0.0	0.0	2	47.330962	0.0
	2	0.0	0.0	2	122.05598100000002	0.0
	2	0.0	0.0	2	25.547072	0.0
	2	0.0	0.0	2	54.728876	0.0
	2	0.0	0.0	2	127.485755	0.0
	2	0.0	0.0	2	112.084227	0.0
	2	0.0	0.0	2	36.313139	0.0
	2	0.0	0.0	2	104.210828	0.0
	2	0.0	0.0	2	44.604391	0.0
	2	0.0	0.0	2	31.444437000000004	0.0
	2	0.0	0.0	2	5.771394	0.0
	2	0.0	0.0	2	28.216057000000003	0.0
	2	0.0	0.0	2	48.03373100000001	0.0
	2	0.0	0.0	2	28.21685	0.0
	2	0.0	0.0	2	117.390466	0.0
	2	0.0	0.0	2	21.537687	0.0
	2	0.0	0.0	2	32.394466	0.0
	2	0.0	0.0	2	50.21883	0.0
	2	0.0	0.0	2	36.842194	0.0
	2	0.0	0.0	2	44.058422	0.0
	2	0.0	0.0	2	40.551368	0.0
	2	0.0	0.0	2	32.707886	0.0
	2	0.0	0.0	2	27.375807000000002	0.0
	2	0.0	0.0	2	105.687688	0.0
	2	0.0	0.0	2	109.78329400000001	0.0
	2	0.0	0.0	2	117.473966	0.0
	2	0.0	0.0	2	36.049845	0.0
	2	0.0	0.0	2	28.66135	0.0
	2	0.0	0.0	2	105.86281100000001	0.0
	2	0.0	0.0	2	42.187626	0.0
	2	0.0	0.0	2	104.030831	0.0
	2	0.0	0.0	2	102.392307	0.0
	2	0.0	0.0	2	97.92681300000001	0.0
	2	0.0	0.0	2	29.165960000000002	0.0
	2	0.0	0.0	2	31.807188	0.0
	2	0.0	0.0	2	17.108732	0.0
	2	0.0	0.0	2	100.937756	0.0
	2	0.0	0.0	2	33.764707	0.0
	2	0.0	0.0	2	53.574396	0.0
	2	0.0	0.0	2	29.480994000000003	0.0
	2	0.0	0.0	2	40.661678	0.0
	2	0.0	0.0	2	122.879595	0.0
	2	0.0	0.0	2	41.468964	0.0
	2	0.0	0.0	2	27.76404	0.0
	2	0.0	0.0	2	92.61413	0.0
	2	0.0	0.0	2	107.769661	0.0
	2	0.0	0.0	2	60.691391	0.0
	2	0.0	0.0	2	23.594703	0.0
	2	0.0	0.0	2	35.610774	0.0
	2	0.0	0.0	2	21.473187	0.0
	2	0.0	0.0	2	38.395905	0.0
	2	0.0	0.0	2	25.701638	0.0
	2	0.0	0.0	2	109.08465400000001	0.0
	2	0.0	0.0	2	29.59786	0.0
	2	0.0	0.0	2	29.0669	0.0
	2	0.0	0.0	2	46.605613	0.0
...
];

